Version 4.1
SHEET 1 880 680
WIRE 656 -80 80 -80
WIRE 656 -64 656 -80
WIRE 656 64 656 16
WIRE 80 128 80 -80
WIRE 656 176 656 144
WIRE 80 304 80 208
WIRE 656 304 656 240
WIRE 656 304 80 304
FLAG 80 304 0
SYMBOL voltage 80 112 R0
SYMATTR InstName V1
SYMATTR Value PULSE(-15 15 0 0.001m 0.001m 100m 200m)
SYMBOL res 640 -80 R0
SYMATTR InstName R1
SYMATTR Value 25
SYMBOL ind 640 48 R0
SYMATTR InstName L1
SYMATTR Value 0.25
SYMBOL cap 640 176 R0
SYMATTR InstName C1
SYMATTR Value 100µ
TEXT 40 312 Left 2 !.tran 0 200m 0 0.1m
