Version 4.1
SHEET 1 2064 1384
WIRE 1232 -352 1200 -352
WIRE 1680 -352 1648 -352
WIRE 1984 -320 1920 -320
WIRE 1232 -288 1200 -288
WIRE 1680 -288 1648 -288
WIRE 1232 -160 1200 -160
WIRE 1680 -160 1648 -160
WIRE 1984 -128 1920 -128
WIRE 1232 -96 1200 -96
WIRE 1680 -96 1648 -96
WIRE -464 -32 -464 -80
WIRE 1232 32 1200 32
WIRE 1680 32 1648 32
WIRE 1984 64 1920 64
WIRE 1232 96 1200 96
WIRE 1680 96 1648 96
WIRE 1232 224 1200 224
WIRE 1680 224 1648 224
WIRE 1984 256 1920 256
WIRE 1232 288 1200 288
WIRE 1680 288 1648 288
WIRE 1232 416 1200 416
WIRE 1680 416 1648 416
WIRE 1984 448 1920 448
WIRE 1232 480 1200 480
WIRE 1680 480 1648 480
WIRE 1232 608 1200 608
WIRE 1680 608 1648 608
WIRE 1984 640 1920 640
WIRE 1232 672 1200 672
WIRE 1680 672 1648 672
WIRE 1232 800 1200 800
WIRE 1680 800 1648 800
WIRE 1984 832 1920 832
WIRE 1232 864 1200 864
WIRE 1680 864 1648 864
WIRE 1232 992 1200 992
WIRE 1680 992 1648 992
WIRE 1984 1024 1920 1024
WIRE 1232 1056 1200 1056
WIRE 1680 1056 1648 1056
FLAG -112 224 0
FLAG -112 432 0
FLAG -112 640 0
FLAG -464 48 0
FLAG -464 -80 VDD
FLAG 192 64 VDD
FLAG 192 272 VDD
FLAG 192 480 VDD
FLAG -112 144 A
FLAG -112 352 B
FLAG -112 560 C
FLAG 80 112 A
FLAG 80 176 A
FLAG 80 320 B
FLAG 80 384 B
FLAG 80 528 C
FLAG 80 592 C
FLAG 320 144 nA
FLAG 320 352 nB
FLAG 320 560 nC
FLAG 464 16 nA
FLAG 464 80 nB
FLAG 464 208 nA
FLAG 464 272 B
FLAG 464 400 A
FLAG 464 464 nB
FLAG 464 592 A
FLAG 464 656 B
FLAG 704 240 t2
FLAG 704 48 t1
FLAG 704 432 t3
FLAG 704 624 t4
FLAG 576 160 VDD
FLAG 576 352 VDD
FLAG 576 -32 VDD
FLAG 576 544 VDD
FLAG 800 16 t1
FLAG 800 80 t1
FLAG 800 208 t2
FLAG 800 272 t2
FLAG 800 400 t3
FLAG 800 464 t3
FLAG 800 592 t4
FLAG 800 656 t4
FLAG 1040 240 nA_B
FLAG 1040 48 nA_nB
FLAG 1040 432 A_nB
FLAG 1040 624 A_B
FLAG 912 160 VDD
FLAG 912 352 VDD
FLAG 912 -32 VDD
FLAG 912 544 VDD
FLAG 1344 -208 VDD
FLAG 1344 -16 VDD
FLAG 1344 -400 VDD
FLAG 1344 176 VDD
FLAG 1344 368 VDD
FLAG 1344 560 VDD
FLAG 1344 752 VDD
FLAG 1344 944 VDD
FLAG 1200 416 A_nB
FLAG 1200 288 C
FLAG 1200 224 nA_B
FLAG 1200 96 nC
FLAG 1200 32 nA_B
FLAG 1200 -96 C
FLAG 1200 -160 nA_nB
FLAG 1200 -288 nC
FLAG 1200 -352 nA_nB
FLAG 1200 480 nC
FLAG 1200 608 A_nB
FLAG 1200 672 C
FLAG 1200 800 A_B
FLAG 1200 864 nC
FLAG 1200 992 A_B
FLAG 1200 1056 nC
FLAG 1792 -208 VDD
FLAG 1472 -128 o1
FLAG 1648 -160 o1
FLAG 1648 -96 o1
FLAG 1472 -320 o0
FLAG 1472 1024 o7
FLAG 1472 832 o6
FLAG 1472 640 o5
FLAG 1472 448 o4
FLAG 1472 256 o3
FLAG 1472 64 o2
FLAG 1984 -128 y1
FLAG 1792 -400 VDD
FLAG 1648 -352 o0
FLAG 1648 -288 o0
FLAG 1984 -320 y0
FLAG 1792 -16 VDD
FLAG 1648 32 o2
FLAG 1648 96 o2
FLAG 1984 64 y2
FLAG 1792 176 VDD
FLAG 1648 224 o3
FLAG 1648 288 o3
FLAG 1984 256 y3
FLAG 1792 368 VDD
FLAG 1648 416 o4
FLAG 1648 480 o4
FLAG 1984 448 y4
FLAG 1792 560 VDD
FLAG 1648 608 o5
FLAG 1648 672 o5
FLAG 1984 640 y5
FLAG 1792 752 VDD
FLAG 1648 800 o6
FLAG 1648 864 o6
FLAG 1984 832 y6
FLAG 1792 944 VDD
FLAG 1648 992 o7
FLAG 1648 1056 o7
FLAG 1984 1024 y7
SYMBOL nand 176 144 R0
SYMATTR InstName X1
SYMBOL voltage -112 128 M0
WINDOW 123 0 0 Left 0
WINDOW 39 0 0 Left 0
SYMATTR InstName A
SYMATTR Value 0
SYMBOL voltage -112 336 M0
SYMATTR InstName B
SYMATTR Value 0
SYMBOL voltage -112 544 M0
SYMATTR InstName C
SYMATTR Value 0
SYMBOL voltage -464 -48 R0
SYMATTR InstName V1
SYMATTR Value 1
SYMBOL nand 176 352 R0
SYMATTR InstName X2
SYMBOL nand 176 560 R0
SYMATTR InstName X3
SYMBOL nand 560 48 R0
SYMATTR InstName X4
SYMBOL nand 560 240 R0
SYMATTR InstName X5
SYMBOL nand 560 432 R0
SYMATTR InstName X6
SYMBOL nand 560 624 R0
SYMATTR InstName X7
SYMBOL nand 896 48 R0
SYMATTR InstName X8
SYMBOL nand 896 240 R0
SYMATTR InstName X9
SYMBOL nand 896 432 R0
SYMATTR InstName X10
SYMBOL nand 896 624 R0
SYMATTR InstName X11
SYMBOL nand 1328 -320 R0
SYMATTR InstName X12
SYMBOL nand 1328 -128 R0
SYMATTR InstName X13
SYMBOL nand 1328 64 R0
SYMATTR InstName X14
SYMBOL nand 1328 256 R0
SYMATTR InstName X15
SYMBOL nand 1328 448 R0
SYMATTR InstName X16
SYMBOL nand 1328 640 R0
SYMATTR InstName X17
SYMBOL nand 1328 832 R0
SYMATTR InstName X18
SYMBOL nand 1328 1024 R0
SYMATTR InstName X19
SYMBOL nand 1776 -128 R0
SYMATTR InstName X20
SYMBOL nand 1776 -320 R0
SYMATTR InstName X21
SYMBOL nand 1776 64 R0
SYMATTR InstName X22
SYMBOL nand 1776 256 R0
SYMATTR InstName X23
SYMBOL nand 1776 448 R0
SYMATTR InstName X24
SYMBOL nand 1776 640 R0
SYMATTR InstName X25
SYMBOL nand 1776 832 R0
SYMATTR InstName X26
SYMBOL nand 1776 1024 R0
SYMATTR InstName X27
TEXT -496 1120 Left 2 !.tran 0 100m
