Version 4.1
SHEET 1 880 680
WIRE 192 -80 96 -80
WIRE 192 80 192 -80
WIRE 80 128 -64 128
WIRE 464 160 320 160
WIRE 80 192 0 192
WIRE 0 272 0 192
FLAG 464 160 out
FLAG 96 0 0
FLAG 0 352 0
FLAG -64 208 0
SYMBOL nand 176 160 R0
SYMATTR InstName X1
SYMBOL voltage -64 112 M0
WINDOW 123 0 0 Left 0
WINDOW 39 0 0 Left 0
SYMATTR InstName X
SYMATTR Value PULSE(0 1 0 1p 1p 20n 40n)
SYMBOL voltage 0 256 R0
WINDOW 123 0 0 Left 0
WINDOW 39 0 0 Left 0
SYMATTR InstName V2
SYMATTR Value PULSE(0 1 0 1p 1p 40n 80n)
SYMBOL voltage 96 -96 R0
SYMATTR InstName V3
SYMATTR Value 1
TEXT 472 344 Left 2 !.tran 0 100n
