Version 4.1
SHEET 1 880 680
WIRE 48 16 -112 16
WIRE 288 48 240 48
WIRE 288 80 240 80
WIRE 48 112 48 16
WIRE 128 112 48 112
WIRE 288 112 240 112
WIRE 128 144 -208 144
WIRE 288 144 240 144
WIRE 128 176 -112 176
WIRE 288 176 240 176
WIRE 128 208 48 208
WIRE 288 208 240 208
WIRE 288 240 240 240
WIRE -112 256 -112 176
WIRE 288 272 240 272
WIRE 48 320 48 208
FLAG -208 224 0
FLAG -112 96 0
FLAG -112 336 0
FLAG 288 272 y7
FLAG 288 240 y6
FLAG 288 208 y5
FLAG 288 176 y4
FLAG 288 144 y3
FLAG 288 112 y2
FLAG 288 80 y1
FLAG 288 48 y0
FLAG 48 400 0
SYMBOL decoder_final 176 160 R0
SYMATTR InstName X1
SYMBOL voltage -112 0 R0
WINDOW 123 0 0 Left 0
WINDOW 39 0 0 Left 0
SYMATTR InstName V1
SYMATTR Value PULSE(0 1 0 1p 1p 10m 20m)
SYMBOL voltage -208 128 R0
SYMATTR InstName V2
SYMATTR Value 0
SYMBOL voltage -112 240 R0
SYMATTR InstName V3
SYMATTR Value 0
SYMBOL voltage 48 304 R0
SYMATTR InstName VDD
SYMATTR Value 1
TEXT -240 424 Left 2 !.tran 0 40m
